

all:
	../openfast Main_SparPendulumHydro_HeaveOnly.fst


ed:
	../openfast Main_SparPendulumHydro_ElastoDyn.fst

#all:
#	../openfast Main_SparPendulum_ElastoDyn_Ref0.fst
#	../openfast Main_SparPendulum_ElastoDyn_RefH.fst
#	../openfast Main_SparPendulum_SubDyn_Ref0.fst
#	../openfast Main_SparPendulum_SubDyn_Ref0_NoExtraMom.fst
#	../openfast Main_SparPendulum_SubDyn_RefH.fst
#	../openfast Main_SparPendulum_SubDyn_RefH_NoExtraMom.fst
